pcf
* control data
norestart estimation
{{npar}} {{nobs}} 1 {{npi}} {{nobsgp}}
{{ntpl}} {{nins}} single point 1 0 0
5.0 2.0 0.4 0.03 10
3.0 3.0 1.0e-3
.1
30 .01 3 3 .01 3
1 1 1
* parameter groups
fr  relative 0.001  0.00001     switch  2.0 parabolic
* parameter data
{{pardata}}
* observation groups
{{obsgp}}
* observation data
{{obsdata}}
* model command line
{{runsh}}
* model input/output
{{mio}}
{{pi}}